Circuit: * PSpice Model Editor - Version 16.6.0 *

Fatal Error: No analysis request found.
