Circuit: * D:\GitHub Repositories\IMMD\Project\3501\Furkan\Loss LTSpice\Loss.asc

C4: Increased Cpar to 1e-013
C3: Increased Cpar to 1e-013
C2: Increased Cpar to 1e-013
C1: Increased Cpar to 5e-012
Direct Newton iteration for .op point skipped.
Gmin stepping method for .op point skipped.
Starting source stepping with srcstepmethod=0
Source Step = 3.0303%
Source Step = 33.3333%
Source Step = 63.6364%
Source Step = 93.9394%
Source stepping succeeded in finding the operating point.


Date: Wed Feb 06 14:56:42 2019
Total elapsed time: 0.820 seconds.

tnom = 27
temp = 150
method = modified trap
totiter = 45871
traniter = 45768
tranpoints = 15734
accept = 10924
rejected = 4810
matrix size = 89
fillins = 146
solver = Normal
Thread vector: 16.9/6.7[2] 2.5/2.1[2] 1.4/1.0[2] 0.3/1.0[1]  2592/500
Matrix Compiler1: 12.14 KB object code size  1.8/1.0/[0.5]
Matrix Compiler2: 9.54 KB object code size  1.0/1.1/[0.5]

