Circuit: * D:\GitHub Repositories\IMMD\Project\3501\Furkan\Loss LTSpice\Loss.asc

C4: Increased Cpar to 1e-013
C3: Increased Cpar to 1e-013
C2: Increased Cpar to 1e-013
C1: Increased Cpar to 5e-012
WARNING: Less than two connections to node NC_01.  This node is used by R:U2:TH_4.
WARNING: Less than two connections to node NC_02.  This node is used by R:U1:TH_4.
Direct Newton iteration for .op point skipped.
Gmin stepping method for .op point skipped.
Starting source stepping with srcstepmethod=0
Source Step = 3.0303%
Source Step = 33.3333%
Source Step = 63.6364%
Source Step = 93.9394%
Source stepping succeeded in finding the operating point.

Heightened Def Con from 8.11621e-015 to 2.00008e-010

topstress: MAX(v(topdrain,topsource))=162.671 FROM 0 TO 3e-006
botstress: MAX(v(botdrain,botsource))=169.586 FROM 0 TO 3e-006


Date: Fri Dec 07 12:20:50 2018
Total elapsed time: 1.960 seconds.

tnom = 27
temp = 25
method = modified trap
totiter = 105669
traniter = 105567
tranpoints = 30167
accept = 30114
rejected = 54
matrix size = 91
fillins = 140
solver = Normal
Thread vector: 19.4/7.6[2] 3.5/3.0[2] 1.0/1.5[1] 0.4/1.2[1]  2592/500
Matrix Compiler1: 11.93 KB object code size  2.1/1.0/[0.5]
Matrix Compiler2: 9.62 KB object code size  1.1/1.3/[0.5]

