Circuit: * D:\GitHub Repositories\IMMD\Project\3501\Furkan\Loss LTSpice\Loss.asc

C4: Increased Cpar to 1e-013
C3: Increased Cpar to 1e-013
C2: Increased Cpar to 1e-013
C1: Increased Cpar to 5e-012
Direct Newton iteration for .op point skipped.
Gmin stepping method for .op point skipped.
Starting source stepping with srcstepmethod=0
Source Step = 3.0303%
Source Step = 33.3333%
Source Step = 63.6364%
Source Step = 93.9394%
Source stepping succeeded in finding the operating point.


Date: Wed Feb 20 12:25:19 2019
Total elapsed time: 5.653 seconds.

tnom = 27
temp = 25
method = modified trap
totiter = 149453
traniter = 149374
tranpoints = 37381
accept = 26887
rejected = 10494
matrix size = 101
fillins = 326
solver = Normal
Thread vector: 17.7/11.7[2] 5.8/3.1[2] 2.0/1.5[2] 0.8/1.2[1]  2592/500
Matrix Compiler1: 30.42 KB object code size  7.4/4.4/[2.1]
Matrix Compiler2: 14.18 KB object code size  2.9/4.1/[1.4]

