Circuit: * D:\GitHub Repositories\IMMD\Project\3501\Furkan\Loss LTSpice\Loss.asc

C4: Increased Cpar to 1e-013
C3: Increased Cpar to 1e-013
C2: Increased Cpar to 1e-013
C1: Increased Cpar to 5e-012
Direct Newton iteration for .op point skipped.
Gmin stepping method for .op point skipped.
Starting source stepping with srcstepmethod=0
Source Step = 3.0303%
Source Step = 33.3333%
Source Step = 63.6364%
Source Step = 93.9394%
Source stepping succeeded in finding the operating point.


Date: Tue Jan 22 11:39:10 2019
Total elapsed time: 0.933 seconds.

tnom = 27
temp = 25
method = modified trap
totiter = 49625
traniter = 49522
tranpoints = 15743
accept = 10957
rejected = 4786
matrix size = 91
fillins = 166
solver = Normal
Thread vector: 18.1/6.1[2] 2.5/2.4[1] 0.9/1.0[1] 0.3/0.9[1]  2592/500
Matrix Compiler1: 14.25 KB object code size  2.0/1.1/[0.8]
Matrix Compiler2: 9.92 KB object code size  0.9/1.2/[0.4]

