Circuit: * D:\GitHub Repositories\IMMD\Project\3501\Furkan\Loss LTSpice\Loss.asc

C4: Increased Cpar to 1e-013
C3: Increased Cpar to 1e-013
C2: Increased Cpar to 1e-013
C1: Increased Cpar to 5e-012
Direct Newton iteration for .op point skipped.
Gmin stepping method for .op point skipped.
Starting source stepping with srcstepmethod=0
Source Step = 3.0303%
Source Step = 33.3333%
Source Step = 63.6364%
Source Step = 93.9394%
Source stepping succeeded in finding the operating point.


Date: Fri Feb 08 15:48:45 2019
Total elapsed time: 2.744 seconds.

tnom = 27
temp = 25
method = modified trap
totiter = 149453
traniter = 149374
tranpoints = 37381
accept = 26887
rejected = 10494
matrix size = 101
fillins = 326
solver = Normal
Thread vector: 14.7/6.9[2] 3.3/2.7[2] 1.1/1.1[1] 0.6/1.1[1]  2592/500
Matrix Compiler1: 30.42 KB object code size  4.8/3.6/[1.1]
Matrix Compiler2: 14.18 KB object code size  1.6/2.2/[0.7]

