Circuit: * D:\GitHub Repositories\IMMD\Project\3501\Furkan\Loss LTSpice\Loss.asc

C4: Increased Cpar to 1e-013
C3: Increased Cpar to 1e-013
C2: Increased Cpar to 1e-013
C1: Increased Cpar to 5e-012
Direct Newton iteration for .op point skipped.
Gmin stepping method for .op point skipped.
Starting source stepping with srcstepmethod=0
Source Step = 3.0303%
Source Step = 33.3333%
Source Step = 63.6364%
Source Step = 93.9394%
Source stepping succeeded in finding the operating point.

.step rgon=10
.step rgon=15
.step rgon=20
.step rgon=25

Date: Mon Mar 04 14:26:20 2019
Total elapsed time: 3.969 seconds.

tnom = 27
temp = 25
method = modified trap
totiter = 65204
traniter = 65101
tranpoints = 16318
accept = 11443
rejected = 4875
matrix size = 89
fillins = 248
solver = Normal
Thread vector: 13.1/6.3[2] 2.4/2.4[1] 1.0/1.0[1] 0.4/1.0[1]  2592/500
Matrix Compiler1: 20.83 KB object code size  2.6/1.5/[0.8]
Matrix Compiler2: 11.47 KB object code size  2.2/1.5/[0.5]

