Circuit: * D:\GitHub Repositories\IMMD\Project\3501\Furkan\Loss LTSpice\Loss.asc

C4: Increased Cpar to 1e-013
C3: Increased Cpar to 1e-013
C2: Increased Cpar to 1e-013
C1: Increased Cpar to 5e-012
Direct Newton iteration for .op point skipped.
Gmin stepping method for .op point skipped.
Starting source stepping with srcstepmethod=0
Source Step = 3.0303%
Source Step = 33.3333%
Source Step = 63.6364%
Source Step = 93.9394%
Source stepping succeeded in finding the operating point.

.step vbus=75 rgon=5
.step vbus=125 rgon=5
.step vbus=175 rgon=5
.step vbus=75 rgon=15
.step vbus=125 rgon=15
.step vbus=175 rgon=15
.step vbus=75 rgon=25
.step vbus=125 rgon=25
.step vbus=175 rgon=25

Date: Wed Feb 27 19:16:53 2019
Total elapsed time: 8.951 seconds.

tnom = 27
temp = 25
method = modified trap
totiter = 63808
traniter = 63707
tranpoints = 16511
accept = 11652
rejected = 4859
matrix size = 89
fillins = 245
solver = Normal
Thread vector: 17.2/6.9[2] 2.6/2.0[2] 1.5/1.0[2] 0.4/1.0[1]  2592/500
Matrix Compiler1: 20.78 KB object code size  2.7/1.4/[0.8]
Matrix Compiler2: 11.43 KB object code size  1.2/1.4/[0.5]

