Circuit: * D:\GitHub Repositories\IMMD\Project\3501\Furkan\Loss LTSpice\Loss.asc

C4: Increased Cpar to 1e-013
C3: Increased Cpar to 1e-013
C2: Increased Cpar to 1e-013
C1: Increased Cpar to 5e-012
WARNING: Less than two connections to node NC_01.  This node is used by R:U2:TH_4.
WARNING: Less than two connections to node NC_02.  This node is used by R:U1:TH_4.
Direct Newton iteration for .op point skipped.
Gmin stepping method for .op point skipped.
Starting source stepping with srcstepmethod=0
Source Step = 3.0303%
Source Step = 33.3333%
Source Step = 63.6364%
Source Step = 93.9394%
Source stepping succeeded in finding the operating point.


topstress: MAX(v(topdrain,topsource))=436.667 FROM 0 TO 3e-006
botstress: MAX(v(botdrain,botsource))=436.98 FROM 0 TO 3e-006


Date: Sat Dec 08 12:43:24 2018
Total elapsed time: 1.925 seconds.

tnom = 27
temp = 25
method = modified trap
totiter = 88215
traniter = 88112
tranpoints = 30130
accept = 30092
rejected = 38
matrix size = 91
fillins = 140
solver = Normal
Thread vector: 14.6/7.0[2] 3.3/3.3[1] 1.0/1.2[1] 0.4/1.0[1]  2592/500
Matrix Compiler1: 11.93 KB object code size  2.1/0.9/[0.6]
Matrix Compiler2: 9.62 KB object code size  1.1/1.1/[0.6]

