Circuit: * D:\GitHub Repositories\IMMD\Project\3501\Furkan\Loss LTSpice\Loss.asc

C4: Increased Cpar to 1e-013
C3: Increased Cpar to 1e-013
C2: Increased Cpar to 1e-013
C1: Increased Cpar to 5e-012
Direct Newton iteration for .op point skipped.
Gmin stepping method for .op point skipped.
Starting source stepping with srcstepmethod=0
Source Step = 3.0303%
Source Step = 33.3333%
Source Step = 63.6364%
Source Step = 93.9394%
Source stepping succeeded in finding the operating point.


Date: Mon Dec 31 12:03:12 2018
Total elapsed time: 0.789 seconds.

tnom = 27
temp = 25
method = modified trap
totiter = 50970
traniter = 50867
tranpoints = 15908
accept = 11164
rejected = 4744
matrix size = 91
fillins = 166
solver = Normal
Thread vector: 13.3/10.0[2] 3.7/2.1[2] 1.6/1.4[2] 0.3/1.0[1]  2592/500
Matrix Compiler1: 14.25 KB object code size  3.2/2.5/[1.3]
Matrix Compiler2: 9.92 KB object code size  2.0/2.4/[0.5]

