Circuit: * D:\GitHub Repositories\IMMD\Project\3501\Furkan\Loss LTSpice\Loss.asc

C4: Increased Cpar to 1e-013
C3: Increased Cpar to 1e-013
C2: Increased Cpar to 1e-013
C1: Increased Cpar to 5e-012
Direct Newton iteration for .op point skipped.
Gmin stepping method for .op point skipped.
Starting source stepping with srcstepmethod=0
Source Step = 3.0303%
Source Step = 33.3333%
Source Step = 63.6364%
Source Step = 93.9394%
Source stepping succeeded in finding the operating point.


Date: Wed Feb 06 12:47:14 2019
Total elapsed time: 0.949 seconds.

tnom = 27
temp = 150
method = modified trap
totiter = 43934
traniter = 43831
tranpoints = 15236
accept = 10601
rejected = 4635
matrix size = 89
fillins = 146
solver = Normal
Thread vector: 14.3/6.2[2] 2.5/2.4[1] 1.0/1.0[1] 0.3/1.0[1]  2592/500
Matrix Compiler1: 12.14 KB object code size  1.7/1.0/[0.5]
Matrix Compiler2: 9.54 KB object code size  0.9/1.2/[0.4]

